          64
 MC_STEP:                     0
 Ar      -2.0001495346053346        6.7995283171604690       -2.0208569014752742     
 Ar      -9.6522577547421928       -5.8241498491383794       0.64535014000169311     
 Ar       5.9707465466117684       -9.5918244318938495        3.4173936276887105     
 Ar      -2.5463877859470996      -0.65136170689986006       -1.4221097740734079     
 Ar       3.0013734808114600       -8.5134966005435686E-002   2.1912215613785007     
 Ar       14.906041443743396        6.6259180351426679       -9.5574491439226374     
 Ar       4.3190499475520570       -11.039555723501230       -3.0830342699400992     
 Ar       12.110464154441921        13.965168318912635        7.6654949882188088     
 Ar      -7.6886827981180117       -10.583554508942150      -0.86020329402670126     
 Ar       4.1506147606124619        9.9277732558560832        9.2525517853236767     
 Ar       14.732894681434017        13.289409294063644       -8.6473228721584565     
 Ar      -11.422844100471281        10.133441350563505       -3.6732308841039507     
 Ar      -10.016595716267066        10.004330488492919        4.9436942760033133     
 Ar       1.7680011131851858       -11.098960464378543       -7.3531604254924829     
 Ar      -1.3566422236123910        5.4287301729249569        3.2827146636019555     
 Ar      -5.4720338746773232       -11.425389159309940        13.467982624814983     
 Ar      -7.9240166436527426       -4.9273491103651503       -3.0516486990069214     
 Ar     -0.85630763528516174       -12.512535999771808       -9.7715103528032703     
 Ar      -7.3087024372902416        8.3050593426802344       -6.6713189229340397     
 Ar       5.0234899362423757        7.4830938534752782        4.1869920029590455     
 Ar      -12.864704820734659        14.114413757125520        10.575988154910048     
 Ar       8.8700412790177783        1.4607110971049120        6.1964157079629265     
 Ar       11.165990955462854       -2.4598639710165546       -6.9642822469954950     
 Ar       2.8775544927275449        9.7561154345981294        3.0915597241991790     
 Ar      -12.360083104576285       -3.4253308999664567        7.0385040155426459     
 Ar       2.5159393340511316       -9.0760584822365491       -14.103588621894112     
 Ar      -9.6738793498673452       -8.0149252026893123        6.2070329678226877     
 Ar       10.651814075495926       -4.2349801939826133      -0.38940623958784615     
 Ar       11.692496425577463       -5.0152427535252482        11.612391586829146     
 Ar      -11.595065391330193       -7.3365902651838590       -11.156209762518309     
 Ar      -8.5063805622092623       -8.6699166965178591        14.129107976722036     
 Ar      -13.844876657116894       -13.685936387213893        2.8596181835074068     
 Ar      -5.6178651309789993        10.241110942193032        11.672275250895501     
 Ar       14.616430533044298       -9.1557896847725306       -14.870409394182975     
 Ar      -8.7008706793551411       -1.6683309302710092       0.44276913738356904     
 Ar      -1.1434918690225759       -2.5772360317115717        5.0361157345963719     
 Ar       9.4197036558256091        8.0477485467867371        1.1659885127394454     
 Ar      -5.3580972274833902       -1.9383707109284143       0.97943416658008986     
 Ar       7.2708457551223384       -10.034701125894296       -6.5040872467825288     
 Ar       12.501627365608957       -5.3076671198998637       -6.6200429830793528     
 Ar       3.6537263949402337       -2.9378232615091973       -9.2060162169442901     
 Ar       9.4727760193200794       -9.5000419839423493       0.22706607015631597     
 Ar       14.133444012223617        13.012063728242817       -4.2387115494812360     
 Ar      -6.9251002461039377        12.910070687544764       -14.928684401029175     
 Ar      -11.913249899824098        6.8218941949722991        1.4597955362280957     
 Ar      -9.4245657398937173        8.2549597883664045       -1.4565805852460290     
 Ar      -6.5571595454558205       -7.8985035279108429        1.3822935420724602     
 Ar       4.2292585649711842       -8.3759627093668527       -6.6217924193158950     
 Ar      -10.702404420195933       -14.879496543540732      -0.16632343422585016     
 Ar      -4.1881643174388339        2.7829997102880406        14.049048605815791     
 Ar      0.41657040134968404       -2.1944909393618781        5.1007742931565292E-002
 Ar      -6.4658323783864411        1.1818419261597324        8.1260178333567907     
 Ar      -10.635556933693458       -12.239940238881067        11.301454791252990     
 Ar     -0.94687296284220901       -4.2108225972574935        14.485257109371599     
 Ar       6.6832910479412559        4.0800912052440177       -2.0085779527549197     
 Ar      -6.4301836738089433        1.3917507602559813        2.3669029582140153     
 Ar      -1.5712617429119180        3.0456390589065210       -1.9901608818096284     
 Ar      -2.0475984351941037        4.0405884758078878       -8.7946191911036138     
 Ar       1.7722342808724567       -13.877436957325880       -11.582991490953290     
 Ar      -6.3301036903482437        4.8050293549735024        11.538465950622546     
 Ar       7.4860149683224400       -13.562956611795130       -10.391605339255030     
 Ar       9.5388734064298077        9.0556712260338816        9.8062248412765918     
 Ar      0.48251914208022606        2.3744189529724142        2.7101871011391268     
 Ar      -11.358276390003386        10.887696809511906        9.6761241208333661     
          18
 MC_STEP:                  5000
 Ar      -1.8620576273621934       -14.521973820826339       -10.207247285166218     
 Ar      -2.7936556735782392        8.8189593385013225       -7.3040930102726396     
 Ar      0.82394749252336652        10.930110678666335       -6.6923188797514452     
 Ar      -5.9839744254567684        7.9882164536172633        13.840158168033634     
 Ar      -12.149079088951424       -10.157413915210030       -10.334119867165386     
 Ar      -12.605330287431331       -14.755934007441150        8.4333333846206955     
 Ar     -0.52697184304334188       -2.0094410192417644       -6.4033739708393433E-003
 Ar       11.867133636501977       -5.0315925608688730        8.8189160420268582     
 Ar      -1.2899066862970430        5.1910315368874258       -6.2780281349479559     
 Ar       9.7998760997331544       -8.0118249276662077       -11.938397116959894     
 Ar      -4.4811597001084760       -1.9710391454702294       -8.8595416119137127E-002
 Ar       8.8490599634447662        10.147198871389365        12.565457590548704     
 Ar      -3.0564242235636323        4.2586277381185997       -3.2496797712122447     
 Ar       13.517496032155975        10.092328368885987        11.552717917366675     
 Ar      -2.9432395927167216       -5.5343334846587844       -3.0641916358790384     
 Ar      -7.7958278615181076       -8.9412472438512900      -0.61155574645105393     
 Ar      -3.0098916014853905       -3.9158375419459457        2.5977658990493024     
 Ar      -5.2983802377923483        4.1941028907926006        13.585784312251411     
          39
 MC_STEP:                 10000
 Ar      -12.121457035318940        13.025711764723145        9.3059176106540207     
 Ar      -12.296447064104665       -8.3067641102909420       -1.8126012952843764     
 Ar       14.441285481406119        12.182386670307169       -4.8536468888070594     
 Ar      -5.3304776134081440        2.9710224286239377       -5.2923150177075620     
 Ar       4.9161117194657606       -3.3224920876595831       -14.413566203760976     
 Ar       8.8495223949887070        11.797183735304165       -13.748204526730969     
 Ar       3.7229768412225042        9.3717367434812076        8.0786797269503179     
 Ar      -8.9538336989254148       -8.2377642424445803        9.1508816567963525     
 Ar       10.627087671761730       -13.943049689880842      -0.40899233264000046     
 Ar      -6.0579048224360665       -13.611137434808434       -2.3929902661606821     
 Ar      -8.8352415015147923       -5.5908905712532899        5.7448692655948737     
 Ar       8.9130390189810491       -4.9126825463177557       -1.6252501422175760     
 Ar       11.861759572575499       -6.1565072330535182       -14.286948127346065     
 Ar      -9.1392734271406368       -1.6211955483467353      -0.59437083824458536     
 Ar       12.426955909117197       -14.692089537807497       -3.3049578430762221     
 Ar      -4.1078320455306638        5.3376877996296681        1.5681237536229364     
 Ar       4.6521767627622150        4.2980248519503990        10.185125709510583     
 Ar       2.3729947317063358        2.9240324074568695        8.1920215257809978     
 Ar      -5.2484124692446592       -4.0579749895772039       -11.244346923051804     
 Ar      -8.9377037951653957       -13.396940992901840       -10.967451039456170     
 Ar      -14.995781185438346       -13.060944632243704        7.9784822967274893     
 Ar     -0.79219186355592219        1.9658899167046839        11.768978008497788     
 Ar      -4.8653479633376335       -3.5919384991737111        12.479140739949873     
 Ar      -4.4646689718629551        1.5864380653715757        10.553882135895444     
 Ar       13.027624265943569        13.292649279048911      -0.19959415772197175     
 Ar       11.783496671028846        14.893785541655639        3.4432930683541034     
 Ar      -5.9277415168987933        1.8342305982709428       -1.4603788070817014     
 Ar       11.937380547945484        7.7500927838042415       -11.176118895592559     
 Ar      -13.146778655102613       -2.9947177430200318        12.101419381654409     
 Ar      -2.6072716596767433        3.2677716868662792        7.2790058713092449     
 Ar       11.004603756219016       -9.7752281711841214       -1.4474079812919154     
 Ar      -14.050288240839178       -10.040518796156029        13.787969800551327     
 Ar       8.2480377451009232       -6.6434546914437149       -6.0650853050989566     
 Ar      -11.299099301345990       -6.5457078846057630        12.557257620704771     
 Ar       9.9218566501612528       -4.0767969331688363       -10.292665453519923     
 Ar       5.8450360025140293       -12.810475220207957        4.7952226826966404     
 Ar       8.8979021690706368       -9.9006079104869364        13.251991269761888     
 Ar       9.9327136487176659       -9.8243393472590803        6.8513747872532207     
 Ar      -4.2324712697199685       -4.8255671020422479       -1.2312045201070643     
          26
 MC_STEP:                 15000
 Ar      -13.615647969284685      -0.80338999020680602        13.391457541434965     
 Ar     -0.99947678985297728       -12.173742235167094        8.5684875331927373     
 Ar       4.0044335490846725       -5.9822264595587846        10.962476679482570     
 Ar      -3.7993442148903114        9.4879816756476814       0.36607185441464107     
 Ar      -7.3166187269844549        7.4426584962067963       -12.729567146736976     
 Ar       8.9433536000063043        11.454395755534051       -4.3760672546567276     
 Ar       1.0701353986212574        11.159878533211542       -6.6459599141501506     
 Ar       14.712698666311889        6.6992974279373927       -12.915289885928352     
 Ar       12.381249494549342       -14.069306309000597       -12.346301077273571     
 Ar       13.567309542412712       -1.6308492126963809       -14.073518300233493     
 Ar       14.811672582394252       -9.3771874500252572        9.7897768808741361     
 Ar       4.3093380229557825        3.3256408737172105        14.705197731075938     
 Ar       10.057673556752972        8.3149643648902440       -13.119144765136248     
 Ar      -2.4732804331661287        13.548955202229829        7.2377195735970412     
 Ar      -1.3960357675126982        14.021975373640764       -5.2374408333401625     
 Ar      -5.3396045572245150       -14.315769591815748       -6.0712941592393808     
 Ar       8.4072583390956961        4.3697617112168112       -10.646934979173114     
 Ar      -10.101365411542542        13.560624664303230       -6.3139423423199634     
 Ar      0.85037766141985127       -12.182822635724399      -0.67943202803088676     
 Ar      -4.3451659557575137       -6.7495366714299916        10.489061516914267     
 Ar      -10.706852806841074       -4.0102097293255046       -3.3309303948915083     
 Ar       2.6445514118628450       -10.414976381763688        5.7446754081656053     
 Ar       11.975708016542116        5.0950086344222907       -9.3373251746197674     
 Ar       1.3635404995436669       -14.477424187121313        10.466216115288153     
 Ar      -12.426571651257120       -10.323191636577356        13.011771906299035     
 Ar      -2.0577049154478830       -3.1188859821808235        11.714731898359165     
          19
 MC_STEP:                 20000
 Ar       12.361109296116808       -8.9318891944622543        3.9109336378404311     
 Ar      -8.6933069201314090        3.2237042054764675       -7.9736853719318184     
 Ar      -9.7502977123208296       -5.6189684385730390      -0.83733567243784002     
 Ar      -8.0177101430564957        3.7137043576661224        12.107522990078941     
 Ar      -4.1621439687080475        5.9842199271226457       -13.267900869159398     
 Ar       5.3433547719480607        8.8222646791122870        5.3185124936538557     
 Ar       8.9129440954113477        3.2861275342234073       0.85438683058257370     
 Ar       14.332663294367395       -4.4829938074514271       -3.5430397454192946     
 Ar       1.9675604616648688       -2.3309120639043881        10.731526983178858     
 Ar       14.639777427794421       -4.4180498217934510        12.887392641287448     
 Ar       2.7842627665114801       -11.870996951575087        7.9124635673315922     
 Ar      -13.496677770368191        2.8200529768691283        11.942586044261718     
 Ar       11.299186652799882       -1.4628853584264849       -5.9589826925301237     
 Ar      -1.1042303536025011        8.7373319622957748       -13.171042976182457     
 Ar       11.872767318836171        4.8357221799333701        7.7884074870502058     
 Ar      -4.7041946834378994        13.240473951629699        1.2695723529741385     
 Ar       6.3368073805462695        4.6798075273269379        11.188514545788140     
 Ar       5.6660016341133650        3.7851697486982419       -4.5906381640860072     
 Ar      -2.6488190572126626       -4.4943935250314873      -0.33024407208411688     
          15
 MC_STEP:                 25000
 Ar      -3.7213050775229917        4.2142422018641099        12.699235579552960     
 Ar       9.0436109468707304        13.032440922756830        14.962812495919000     
 Ar       11.450076281587371       -10.947670189895849       -14.357548568363082     
 Ar       3.7005214938677078       -12.071258453460198       -9.4587772462210999     
 Ar      -3.3582571593496020        11.721307909545970       -7.0731423939117910     
 Ar      -8.6716388016138275       -10.268204303928478        11.785305453972848     
 Ar       4.7741980233468118       -9.2496217615966891       -6.7102613787480863     
 Ar       10.025317064020992       -2.9358871710259251        6.1700556846997792     
 Ar       6.3221491701913246        7.4448602109871436        6.9102845184471882     
 Ar      -3.3196266850598981        3.6211626559652403        6.9509671079426205     
 Ar       1.7574604304653807       -3.3030838560933624        1.1838371477011282     
 Ar       6.2520574688583448        3.1431825560554758       0.26834374620870349     
 Ar      -10.778715746586334       0.27143077902647694        5.6553272559135914     
 Ar      -10.648107703230856       -13.947754874182825       0.45875197743898255     
 Ar      -3.7484893885264263        13.564566378591079       -2.3972923494296143     
          10
 MC_STEP:                 30000
 Ar       1.3243552555558828        12.255324567436165        14.165890599300919     
 Ar      -12.191743040044013       -5.8819600647480161       -6.5010589974845416     
 Ar      -1.1705699333019215        3.8943192475423949       -3.9656003782742895     
 Ar      -1.8029760841772742       -10.214982725670398       -1.0934132535538335     
 Ar       1.8772793833577186       -14.968668672957534       -5.4921625710078334     
 Ar       7.0498018532514823       -1.3742907974436833       -3.7137543085276903     
 Ar       4.9212418641835018       -2.4968516908000211        8.8682068441965978     
 Ar       13.679680764986468       -14.732657711725462       -5.0348489749199965     
 Ar       7.0347045818708720        5.1222149153226990        8.7648619140918633     
 Ar      0.24120068043028464       -1.5072454299336684       -6.2799185971117435     
          42
 MC_STEP:                 35000
 Ar      -11.206609384837586       -4.4259427097993829       -2.8162310682391056     
 Ar      -14.968108858633675       -7.1873014473304222       -3.3462930648463050     
 Ar       13.177256413157867       -10.791593978414792       -8.4468173261294943     
 Ar       1.2642302457428478       -10.179254167311111        1.0223337093820710     
 Ar      -6.4496860408062489       -6.0356051310412582       -7.3375141232873400     
 Ar      -7.9943860556327433       -3.4971253078625342       -8.7547791886127762     
 Ar       8.3415722417692848        8.5426481931188576        4.5850945706084616     
 Ar      -10.904986953308692       -13.640292929913588        4.6433634309150458     
 Ar      -1.2907386220958630       0.66634750071958049       -4.1024642496294401     
 Ar      -1.0957838083451876        6.8002181621871731        4.8671474738391707     
 Ar      -11.060092757250505        1.1318116297610317        10.939247766064785     
 Ar      -7.3965499918773556        2.2015337518285616       0.25566758415165403     
 Ar       13.812241054475177      -0.63535705396151587        11.018351620251273     
 Ar      -8.1177546182824987        1.1880351678968193       -8.5497836884398062     
 Ar       1.3014748637139526       -11.245271565288826       -6.8463229197103406     
 Ar      -8.9265081354054256       -1.5953253660192868       -12.780361691040738     
 Ar       9.5108750969494658       0.89708231896834256       -6.5539474682062533     
 Ar      -7.5829891748230063       -4.3659494187755996      -0.59499450207376547     
 Ar      -7.3146428021138536       -6.9080221851844996        13.289624215764931     
 Ar       10.179260687080959        8.2354734353970755        8.4493234733229485     
 Ar       3.0178106474761135        7.0449735400626254        7.2935772078298386     
 Ar      -10.394317758576008        12.613398067779434        4.1179563077559109     
 Ar     -0.60700553245408173       -7.9915935482429576       -10.041646216517815     
 Ar       8.1559218681134027        2.7166308091473876        10.861789896246115     
 Ar       6.9449866786533363        10.791499529890183       -11.727613179894728     
 Ar      -8.3075285946047455       -8.7025062047273067       -9.3147008956430852     
 Ar      -8.9665759802945715        11.645135055948778       -2.5974032074824924     
 Ar      -6.1621078677704713       -9.5058176837661321       -13.587101615764904     
 Ar      -13.818921729316560       -2.7016623354864411       -12.555063936109057     
 Ar       11.549501565908379        6.5815139412146673       -14.004497316170214     
 Ar       4.4458190988551829       -2.5791521641426152        9.8257927135141419     
 Ar      -13.915215777156835       -6.7620454273428656        7.3645957930608450     
 Ar      -14.523888226786001       -12.756210572725637        5.9305523540855045     
 Ar       3.9033435553299389        9.2723870259185546       -3.2370931870578774     
 Ar      -8.9805742659836429        1.2808049020887058E-002  -2.6293001598411259     
 Ar      -11.306070812051162       -3.6188036820938194        8.3328097624932234     
 Ar       5.9884662033470075        3.4604127490970100        5.1746851272796608     
 Ar      -10.363090504980146        1.4467178821789428        2.8659678223504503     
 Ar      -11.161397939053764        8.9673457642280585        1.2748650411446849     
 Ar      -11.706386541559857       -1.1928147961542734       0.42537230028346551     
 Ar       8.3659572011866707        10.007083346131775        1.5986976487459836E-002
 Ar       10.894753819537168        3.2043057529017469        8.0256059153689758     
          16
 MC_STEP:                 40000
 Ar       1.2337408781494323       -11.199398796609030       -5.0339837780021384     
 Ar      -3.8079115100820644       -8.7427165823167847       -11.803595492174971     
 Ar       10.133408991109290        4.3426944006140715      -0.85934938258148108     
 Ar       2.5366364059632174       -7.8794406723278723       -7.5844825260726285     
 Ar       5.0582724849566869        1.3324485597070739      -0.41880207423116822     
 Ar       5.2121081555123476       -13.786930992423684       -5.4414333052542965     
 Ar      -9.9415891172225255       -11.909781791235119        10.319303761050854     
 Ar     -0.71427966229637896        5.5757894859975332       -11.758833151670217     
 Ar      -8.7349889352905308        2.9407990243763482       -6.6925796807994153     
 Ar      -10.712705635886536       -7.3011863131394446        8.4244025748554066     
 Ar       6.5896753973118871        4.1614154218588384       -8.5491719767090579     
 Ar       2.8715319061165880        14.800301131471267        8.1918040612969740     
 Ar      -2.9529604353708061        5.2906921608449302        11.361634230451108     
 Ar      -12.569870447810505       -7.6117659224291589        4.7458513840180512     
 Ar       12.814648281242777       0.45065158946999861        12.569208536416394     
 Ar      -4.8998338675451514        2.8619155673557728        14.831574332434865     
          47
 MC_STEP:                 45000
 Ar      -10.392223628676817      -0.88581664676575222        11.460713264016350     
 Ar       14.527847017728046       -14.414613742855092       -1.9640374075852112     
 Ar       3.0703921051363086        11.569357426864116       -12.565134075074447     
 Ar      -13.620225366442973       -3.3552752668387544        10.252047258434260     
 Ar      -5.5742556336089635       -4.2087009038943206        10.526684179684988     
 Ar      -8.4806981139547091       -6.6872184341631531        11.753090403915659     
 Ar      -9.6657810061975482       -3.8810884235878307        9.1257269924501845     
 Ar      -14.709340183583098        3.4274534810571042        6.5273267101526109     
 Ar      -12.876924428354187        11.504059223683365        9.6085621126300360     
 Ar       12.501879237336318        12.388870229956972        3.6433800815792772     
 Ar      -11.956030144297429       -6.7741416770847778        10.194310963727769     
 Ar      -11.582970218234687       -2.9871849298366415        14.287162657029729     
 Ar      -11.723673415161368       -1.9823585921833367        6.9203632113474765     
 Ar      -5.5376240174341138      -0.29766930033360772        8.9437403221967244     
 Ar      -6.6809752897005268       -1.3737988507794852        12.109128502594181     
 Ar       2.8251620051078303       -5.6629027866474679       -11.750305723415618     
 Ar       13.219412248028265       -13.804375121048700        1.6350273748754276     
 Ar       14.159354823396026       -5.6124228943245740        8.1082035742255698     
 Ar       13.247938553032270        3.8575573910014072      -0.24652906947241426     
 Ar      -11.242785139346111       -10.814673492364378       -1.7328708603354794     
 Ar       6.4808710996633891       -10.962355453172666        8.6768538148170347     
 Ar       7.7409420333803203       -5.0447214051360705       -7.5612315832789623     
 Ar      -8.5934750167564182       0.28836477487052647        3.9987140505124903     
 Ar      -4.1557808844868553       -7.6807699511123273        12.134891156521249     
 Ar      -11.244586168818058        7.3289435351794685       -7.1474852339375960     
 Ar       9.1798612980578564        4.4848103131447772        7.7564562802283241     
 Ar     -0.75170862449318321        14.448902862873240      -0.38355609188992190     
 Ar      -13.907206170604510        13.929143419347675        3.8943059792110510     
 Ar       9.2880488197045707       -10.246084191870903        1.0251265247860859     
 Ar       8.9151314361604932        9.3258097971575236        12.868385929591101     
 Ar       1.9782640597484233      -0.58960829168531248       -6.2198123639938654     
 Ar      -7.5879816616832372       -14.826772808250219       -11.829587997296560     
 Ar       4.5347103486008278       -10.639633076002932       -10.689697683563713     
 Ar     -0.17862076896958512       -5.3822862970082044        12.912514848783548     
 Ar      -4.7837801574020844E-002   3.5848525008340459       -4.0736037250761221     
 Ar      -9.5406248796678774       -9.7332407181414631       -5.4101704780652344     
 Ar      -12.054773335568214       -4.3275439129667062        3.8937235914375674     
 Ar       5.6404908414951223        5.5007069018751089        11.760710279657737     
 Ar      -1.6603940444405705        2.8565920053590581        14.203632933477756     
 Ar      -3.0257745103983726        1.3694270889356179        5.5774160061018190     
 Ar      -8.3058843528646964       -5.7915161872948628       -3.2005295057735816     
 Ar       13.010691038832730       -6.1473037300932791       -11.343094315382281     
 Ar      -8.1912930230965202        11.957978558606740       -7.4761213555407116     
 Ar       13.797417649630509       -9.1804836334056255        6.4172084203037185     
 Ar      0.48609931326674849       -12.678485154075144        13.271037907151946     
 Ar      0.53698236012016731       -8.8489126848048514        10.067334889282364     
 Ar       4.9270470611916473       -8.3093128147859385        13.737747760204570     
          23
 MC_STEP:                 50000
 Ar       7.2548021275284675        3.7949850726358907        13.209291644501583     
 Ar      -6.4473618850081369       -8.1824398952397104        14.848873952919019     
 Ar      -10.555402957599263        3.6507644090874818       -3.7702330975618334     
 Ar       4.3497534971032943       -1.3366569729459634       -8.6847683255513637     
 Ar      -6.7904454525525706       -13.959442922829982       -5.9058410082149653     
 Ar      -6.8847182685081734        1.5649880086117411      -0.21233355944956589     
 Ar      -11.703669260736717        14.862504123706128       -5.2734746322878179     
 Ar      -10.416910774183304       0.50767622792267986       -2.2145861668584086     
 Ar      -7.5797415727516384       -14.800969055924314       -11.122682152092482     
 Ar       14.095234021070643       -6.8338640756133664       -9.2409834757553622     
 Ar      -1.0340692871026187      -0.74555885242592623       -8.5878214948860698     
 Ar       13.244970601858135        13.815805133975591        12.226766778164583     
 Ar      -7.5994609437549610       -2.2399748962785884        1.4235780151533421     
 Ar       4.1037693608198023        9.5462571200548965       -7.0782167344955536     
 Ar      -6.4615557371878012       -9.6708116334790049        10.735920956963760     
 Ar       7.9972057118596283       -11.502795089295692       -1.8440900629762975     
 Ar      -10.254196749387356       -1.5172213533644987        6.4595395358003138     
 Ar       13.122142600672413        6.6468682873493909       -6.8175433923893571     
 Ar      -9.3062948510409580        10.743431788406177       -3.9440254133283936     
 Ar      -12.553032071934432        3.1880175002882840       -11.401943292625628     
 Ar       8.0366911626699959       -11.569001231370564        12.833780798632880     
 Ar       4.9495827194810991      -0.78194084373066408        14.971701432718882     
 Ar      -12.015918240576472        8.7113624931644953        4.5052561343463129     
          28
 MC_STEP:                 55000
 Ar      -8.5145390418230740        2.4353254878867858E-002  -7.1789789582185861     
 Ar      -4.7654342006928765       -8.1939296796038192        12.360945024166369     
 Ar     -0.57758358209128779        1.6445324929818188        6.3746767587691373     
 Ar      -14.592392890174693        11.166922408089935       -3.5178282703715880     
 Ar      -11.385966574303765       -12.345993430459577       -2.6817360854593759     
 Ar      -7.3430831383532729       -5.5919472637102032        9.1612323329852181     
 Ar      -4.8953652365934968       -4.7860566822363886       -8.5222187070684932     
 Ar      -1.9153588808371627        2.9194456632875490        12.258365030910939     
 Ar       10.384381677320496       -5.4844525868790353       -1.5704034810623115     
 Ar      -12.396532223530960        14.322368565551770       -6.0137740141975016     
 Ar       10.705333558038342       -7.8856928013844723        12.028209720864071     
 Ar       6.8131685325504101        8.0268892245373102        5.2052141022140486     
 Ar      -12.364321704751209        10.831736071210718        2.9839830114762460     
 Ar      -10.550616762477501       -6.2980329610047994        12.375446049262031     
 Ar       10.695288683318218       -12.660165166744587       -7.3600658034989266     
 Ar       5.2547099234295516        5.5126984715767318        7.5003859103937174     
 Ar      -11.734635685991872       -11.925407413255805        1.5026155334612383     
 Ar       1.4138705087459082        13.094892420103921       -12.446055789093540     
 Ar      -12.468958131780251        5.6966749620840282        10.033419507952541     
 Ar       9.5584050784800283       -11.371363968216077        8.8131064233137053     
 Ar       14.517895527469859       -13.827823760350809       -4.7807370329357486     
 Ar       5.8550911622072137        13.909405048549210        5.3950413849576933     
 Ar       9.0861523516437899        6.3050441359107312        7.8575267380156291     
 Ar       1.1363691335745907        7.3842776299884960        5.9866320620248352     
 Ar       9.1915186085706821        12.443475368376250        2.7435582860790406     
 Ar      -10.356807540161070        1.1705449103647847       -4.6621026065998530     
 Ar       12.654157531261795        14.913538623518180       -1.4786302719475830     
 Ar       1.4123110044943588       0.86391208982778633       -12.862039549934037     
          17
 MC_STEP:                 60000
 Ar      -13.177530677908628        14.209449545094518       -13.001210923900619     
 Ar       14.141676690181075        12.591020743202545        7.8506950566705118     
 Ar      -9.9395809640330555        10.478706507647505        14.978097247768837     
 Ar       3.7441627216226490        2.1725778285206516      -0.32562351835339953     
 Ar       10.913605472894513       0.20320542770189753        11.925683695860453     
 Ar       14.327070786371838       -1.3429403427115920       -8.2665086192670749     
 Ar      -5.7455559365758830        1.4921637569736230       -7.0217211125933527     
 Ar      -8.5166290754284546       -8.5967111824985949        12.897521588432866     
 Ar      -2.6057963051997355        12.550511192351667       -9.2532238830518914     
 Ar       11.600021603315327       -12.592334046423467       -12.044805211040167     
 Ar      -7.0602840297801803        2.6834938968047188        1.6104682003490041     
 Ar      0.18147415386001287       -9.7738253441735239        8.5698811308542027     
 Ar       13.709651925678624      -0.50702522423425833       -12.004284394917974     
 Ar       13.490526235331668        10.841987115638158        14.352175587955893     
 Ar       6.5639014307657160        9.6016687527529996       -13.022291261982430     
 Ar      -2.9200957987005740        5.9799899064928876        4.9740345057449318     
 Ar      -9.5665192473148135       -7.4669053499073135       -11.340383611998917     
