12
2MethylFuran
C       -2.56300000       0.79600000       0.26000000
H       -3.51700000       1.17000000       0.56800000
C       -2.28200000      -0.50900000       0.08500000
C       -0.79600000      -0.59800000      -0.15000000
C       -0.32400000       0.66100000      -0.09300000
O       -1.40600000       1.63300000      -0.01800000
H       -2.97500000      -1.32300000       0.11800000
H       -0.22700000      -1.48900000      -0.31600000
C        1.17200000       1.02700000      -0.10400000
H        1.66500000       0.53700000       0.70900000
H        1.60900000       0.71200000      -1.02800000
H        1.28000000       2.08700000       0.00000000
